@<TRIPOS>MOLECULE
CHEMBL217594
 61 65 0 0 0
SMALL
USER_CHARGES

@<TRIPOS>ATOM
      1 C1          0.6347    1.6185    0.3001 C.3     1  <0>1        0.0547
      2 N1          0.4217    0.1805    0.1186 N.am    1  <0>1       -0.6047
      3 C2          0.5802   -0.7324    1.2533 C.3     1  <0>1        0.1511
      4 C3         -0.6961   -0.7651    2.0540 C.ar    1  <0>1       -0.0888
      5 C4         -0.9312    0.1931    3.0383 C.ar    1  <0>1       -0.0333
      6 C5          0.0117    1.2088    3.3067 C.ar    1  <0>1       -0.1229
      7 C6         -0.2492    2.1267    4.2722 C.ar    1  <0>1       -0.1074
      8 C7         -1.4307    2.0960    5.0138 C.ar    1  <0>1       -0.1205
      9 C8         -2.3789    1.1471    4.8067 C.ar    1  <0>1       -0.0992
     10 C9         -2.1732    0.1613    3.8175 C.ar    1  <0>1       -0.0546
     11 C10        -3.1256   -0.8278    3.5789 C.ar    1  <0>1       -0.0844
     12 C11        -2.8901   -1.7865    2.5952 C.ar    1  <0>1       -0.0508
     13 C12        -1.6515   -1.7502    1.8109 C.ar    1  <0>1       -0.0293
     14 C13        -1.4489   -2.7327    0.8177 C.ar    1  <0>1       -0.1010
     15 C14        -2.4000   -3.6780    0.6069 C.ar    1  <0>1       -0.1173
     16 C15        -3.5817   -3.7081    1.3483 C.ar    1  <0>1       -0.1096
     17 C16        -3.8333   -2.8020    2.3272 C.ar    1  <0>1       -0.1154
     18 C17         0.0798   -0.3026   -1.0923 C.2     1  <0>1        0.5292
     19 O1         -0.1960   -1.4765   -1.2210 O.2     1  <0>1       -0.5216
     20 C18         0.0404    0.6161   -2.2863 C.3     1  <0>1       -0.1230
     21 C19        -1.2925    1.3982   -2.3389 C.3     1  <0>1       -0.1434
     22 C20        -1.6185    1.4769   -3.8141 C.2     1  <0>1        0.5224
     23 O2         -2.4234    2.2379   -4.3080 O.2     1  <0>1       -0.5212
     24 N2         -0.8858    0.5811   -4.4978 N.am    1  <0>1       -0.6149
     25 C21        -0.0155   -0.1904   -3.6027 C.3     1  <0>1        0.1159
     26 C22        -0.9481    0.3983   -5.9501 C.3     1  <0>1        0.1623
     27 C23        -0.5627    1.7054   -6.6456 C.3     1  <0>1       -0.1335
     28 C24        -0.6277    1.5145   -8.1623 C.3     1  <0>1       -0.1147
     29 C25        -2.0502    1.1220   -8.5663 C.3     1  <0>1       -0.1231
     30 C26        -2.4357   -0.1852   -7.8708 C.3     1  <0>1       -0.1147
     31 C27        -2.3706    0.0058   -6.3541 C.3     1  <0>1       -0.1346
     32 H1          1.6987    1.8411    0.2205 H       1  <0>1        0.0646
     33 H2          0.0904    2.1664   -0.4691 H       1  <0>1        0.0776
     34 H3          0.2734    1.9180    1.2839 H       1  <0>1        0.0854
     35 H4          0.8041   -1.7338    0.8855 H       1  <0>1        0.1019
     36 H5          1.3975   -0.3867    1.8863 H       1  <0>1        0.0913
     37 H6          0.9347    1.2551    2.7479 H       1  <0>1        0.1305
     38 H7          0.4770    2.9007    4.4718 H       1  <0>1        0.1226
     39 H8         -1.5950    2.8468    5.7726 H       1  <0>1        0.1225
     40 H9         -3.2846    1.1460    5.3951 H       1  <0>1        0.1284
     41 H10        -4.0401   -0.8514    4.1530 H       1  <0>1        0.1328
     42 H11        -0.5432   -2.7321    0.2293 H       1  <0>1        0.1539
     43 H12        -2.2379   -4.4261   -0.1550 H       1  <0>1        0.1204
     44 H13        -4.3102   -4.4792    1.1455 H       1  <0>1        0.1207
     45 H14        -4.7559   -2.8484    2.8867 H       1  <0>1        0.1271
     46 H15         0.8923    1.2959   -2.2812 H       1  <0>1        0.1154
     47 H16        -2.0734    0.8578   -1.8039 H       1  <0>1        0.1078
     48 H17        -1.1651    2.3975   -1.9225 H       1  <0>1        0.1092
     49 H18         0.9822   -0.2809   -4.0322 H       1  <0>1        0.0840
     50 H19        -0.4403   -1.1779   -3.4223 H       1  <0>1        0.0948
     51 H20        -0.2556   -0.3893   -6.2472 H       1  <0>1        0.0883
     52 H21        -1.2552    2.4930   -6.3485 H       1  <0>1        0.0790
     53 H22         0.4507    1.9850   -6.3577 H       1  <0>1        0.0624
     54 H23        -0.3531    2.4457   -8.6578 H       1  <0>1        0.0661
     55 H24         0.0648    0.7269   -8.4594 H       1  <0>1        0.0625
     56 H25        -2.7427    1.9095   -8.2692 H       1  <0>1        0.0645
     57 H26        -2.0966    0.9860   -9.6468 H       1  <0>1        0.0638
     58 H27        -3.4491   -0.4648   -8.1587 H       1  <0>1        0.0661
     59 H28        -1.7432   -0.9727   -8.1679 H       1  <0>1        0.0625
     60 H29        -2.6452   -0.9255   -5.8586 H       1  <0>1        0.0632
     61 H30        -3.0631    0.7933   -6.0570 H       1  <0>1        0.0791
@<TRIPOS>BOND
     1     1     2    1
     2     1    32    1
     3     1    33    1
     4     1    34    1
     5     2     3    1
     6     2    18   am
     7     3     4    1
     8     3    35    1
     9     3    36    1
    10     4    13   ar
    11     4     5   ar
    12     5    10   ar
    13     5     6   ar
    14     6     7   ar
    15     6    37    1
    16     7     8   ar
    17     7    38    1
    18     8     9   ar
    19     8    39    1
    20     9    10   ar
    21     9    40    1
    22    10    11   ar
    23    11    12   ar
    24    11    41    1
    25    12    17   ar
    26    12    13   ar
    27    13    14   ar
    28    14    15   ar
    29    14    42    1
    30    15    16   ar
    31    15    43    1
    32    16    17   ar
    33    16    44    1
    34    17    45    1
    35    18    19    2
    36    18    20    1
    37    20    25    1
    38    20    21    1
    39    20    46    1
    40    21    22    1
    41    21    47    1
    42    21    48    1
    43    22    23    2
    44    22    24   am
    45    24    25    1
    46    24    26    1
    47    25    49    1
    48    25    50    1
    49    26    31    1
    50    26    27    1
    51    26    51    1
    52    27    28    1
    53    27    52    1
    54    27    53    1
    55    28    29    1
    56    28    54    1
    57    28    55    1
    58    29    30    1
    59    29    56    1
    60    29    57    1
    61    30    31    1
    62    30    58    1
    63    30    59    1
    64    31    60    1
    65    31    61    1
@<TRIPOS>MOLECULE
CHEMBL259138
 41 42 0 0 0
SMALL
USER_CHARGES

@<TRIPOS>ATOM
      1 C1          1.5192   -0.5745    0.5533 C.3     1  <0>1       -0.1546
      2 C2          1.1804   -2.0385    0.2651 C.3     1  <0>1       -0.1261
      3 C3         -0.3359   -2.2330    0.3281 C.3     1  <0>1       -0.1211
      4 C4         -0.6747   -3.6969    0.0399 C.3     1  <0>1       -0.1214
      5 C5         -2.1910   -3.8914    0.1030 C.3     1  <0>1       -0.1142
      6 C6         -2.5298   -5.3553   -0.1852 C.3     1  <0>1       -0.0792
      7 C7         -4.0233   -5.5469   -0.1231 C.ar    1  <0>1       -0.0918
      8 C8         -4.6269   -5.8778    1.0760 C.ar    1  <0>1       -0.0857
      9 C9         -5.9964   -6.0547    1.1383 C.ar    1  <0>1       -0.1760
     10 C10        -6.7677   -5.8998   -0.0027 C.ar    1  <0>1        0.0913
     11 C11        -6.1600   -5.5662   -1.2096 C.ar    1  <0>1        0.0887
     12 C12        -4.7872   -5.3857   -1.2639 C.ar    1  <0>1       -0.1055
     13 O1         -6.9124   -5.4131   -2.3319 O.3     1  <0>1       -0.4854
     14 O2         -8.1150   -6.0738    0.0567 O.3     1  <0>1       -0.2496
     15 C13        -8.6639   -6.3931    1.2561 C.ar    1  <0>1        0.1297
     16 C14        -9.0935   -5.3992    2.1324 C.ar    1  <0>1       -0.1825
     17 C15        -9.6467   -5.7648    3.3422 C.ar    1  <0>1        0.1164
     18 N1         -9.7703   -7.0364    3.6725 N.ar    1  <0>1       -0.4821
     19 C16        -9.3754   -8.0065    2.8696 C.ar    1  <0>1        0.1168
     20 C17        -8.8175   -7.7233    1.6399 C.ar    1  <0>1       -0.1811
     21 H1          2.5994   -0.4360    0.5083 H       1  <0>1        0.0537
     22 H2          1.0399    0.0625   -0.1901 H       1  <0>1        0.0534
     23 H3          1.1596   -0.3072    1.5469 H       1  <0>1        0.0533
     24 H4          1.5400   -2.3058   -0.7286 H       1  <0>1        0.0607
     25 H5          1.6597   -2.6755    1.0085 H       1  <0>1        0.0606
     26 H6         -0.6955   -1.9656    1.3218 H       1  <0>1        0.0609
     27 H7         -0.8151   -1.5960   -0.4153 H       1  <0>1        0.0610
     28 H8         -0.3151   -3.9642   -0.9537 H       1  <0>1        0.0627
     29 H9         -0.1954   -4.3339    0.7833 H       1  <0>1        0.0625
     30 H10        -2.5505   -3.6241    1.0966 H       1  <0>1        0.0634
     31 H11        -2.6702   -3.2544   -0.6404 H       1  <0>1        0.0634
     32 H12        -2.1702   -5.6226   -1.1788 H       1  <0>1        0.0746
     33 H13        -2.0505   -5.9923    0.5582 H       1  <0>1        0.0748
     34 H14        -4.0270   -5.9988    1.9658 H       1  <0>1        0.1303
     35 H15        -6.4653   -6.3139    2.0760 H       1  <0>1        0.1295
     36 H16        -4.3136   -5.1232   -2.1983 H       1  <0>1        0.1391
     37 H17        -7.2323   -4.5112   -2.4710 H       1  <0>1        0.3894
     38 H18        -8.9945   -4.3566    1.8684 H       1  <0>1        0.1438
     39 H19        -9.9824   -5.0007    4.0277 H       1  <0>1        0.1657
     40 H20        -9.4938   -9.0349    3.1774 H       1  <0>1        0.1660
     41 H21        -8.5005   -8.5220    0.9856 H       1  <0>1        0.1447
@<TRIPOS>BOND
     1     1     2    1
     2     1    21    1
     3     1    22    1
     4     1    23    1
     5     2     3    1
     6     2    24    1
     7     2    25    1
     8     3     4    1
     9     3    26    1
    10     3    27    1
    11     4     5    1
    12     4    28    1
    13     4    29    1
    14     5     6    1
    15     5    30    1
    16     5    31    1
    17     6     7    1
    18     6    32    1
    19     6    33    1
    20     7    12   ar
    21     7     8   ar
    22     8     9   ar
    23     8    34    1
    24     9    10   ar
    25     9    35    1
    26    10    11   ar
    27    10    14    1
    28    11    12   ar
    29    11    13    1
    30    12    36    1
    31    13    37    1
    32    14    15    1
    33    15    20   ar
    34    15    16   ar
    35    16    17   ar
    36    16    38    1
    37    17    18   ar
    38    17    39    1
    39    18    19   ar
    40    19    20   ar
    41    19    40    1
    42    20    41    1
